261       

Na         2.0699999999999998        0.1373486400000000        4.2773486399999996
Na         2.0699999999999998        0.1373486400000000        8.4173486400000002
Na         2.0699999999999998        4.2773486399999996        0.1373486400000000
Na         0.0000000000000000        2.2073486400000002        2.2073486400000002
Na         2.0699999999999998        4.2773486399999996        4.2773486399999996
Na         0.0000000000000000        2.2073486400000002        6.3473486399999999
Na         2.0699999999999998        4.2773486399999996        8.4173486400000002
Na         0.0000000000000000        2.2073486400000002       10.4873486400000004
Na         2.0699999999999998        4.2773486399999996       12.5573486400000007
Na         2.0699999999999998        8.4173486400000002        0.1373486400000000
Na         0.0000000000000000        6.3473486399999999        2.2073486400000002
Na         2.0699999999999998        8.4173486400000002        4.2773486399999996
Na         0.0000000000000000        6.3473486399999999        6.3473486399999999
Na         2.0699999999999998        8.4173486400000002        8.4173486400000002
Na         0.0000000000000000        6.3473486399999999       10.4873486400000004
Na         2.0699999999999998        8.4173486400000002       12.5573486400000007
Na         0.0000000000000000       10.4873486400000004        2.2073486400000002
Na         2.0699999999999998       12.5573486400000007        4.2773486399999996
Na         0.0000000000000000       10.4873486400000004        6.3473486399999999
Na         2.0699999999999998       12.5573486400000007        8.4173486400000002
Na         0.0000000000000000       10.4873486400000004       10.4873486400000004
Na         6.2100000000000000        0.1373486400000000        4.2773486399999996
Na         6.2100000000000000        0.1373486400000000        8.4173486400000002
Na         6.2100000000000000        4.2773486399999996        0.1373486400000000
Na         4.1399999999999997        2.2073486400000002        2.2073486400000002
Na         6.2100000000000000        4.2773486399999996        4.2773486399999996
Na         4.1399999999999997        2.2073486400000002        6.3473486399999999
Na         6.2100000000000000        4.2773486399999996        8.4173486400000002
Na         4.1399999999999997        2.2073486400000002       10.4873486400000004
Na         6.2100000000000000        4.2773486399999996       12.5573486400000007
Na         6.2100000000000000        8.4173486400000002        0.1373486400000000
Na         4.1399999999999997        6.3473486399999999        2.2073486400000002
Na         6.2100000000000000        8.4173486400000002        4.2773486399999996
Na         4.1399999999999997        6.3473486399999999        6.3473486399999999
Na         6.2100000000000000        8.4173486400000002        8.4173486400000002
Na         4.1399999999999997        6.3473486399999999       10.4873486400000004
Na         6.2100000000000000        8.4173486400000002       12.5573486400000007
Na         4.1399999999999997       10.4873486400000004        2.2073486400000002
Na         6.2100000000000000       12.5573486400000007        4.2773486399999996
Na         4.1399999999999997       10.4873486400000004        6.3473486399999999
Na         6.2100000000000000       12.5573486400000007        8.4173486400000002
Na         4.1399999999999997       10.4873486400000004       10.4873486400000004
Na        10.3499999999999996        0.1373486400000000        4.2773486399999996
Na        10.3499999999999996        0.1373486400000000        8.4173486400000002
Na        10.3499999999999996        4.2773486399999996        0.1373486400000000
Na         8.2799999999999994        2.2073486400000002        2.2073486400000002
Na        10.3499999999999996        4.2773486399999996        4.2773486399999996
Na         8.2799999999999994        2.2073486400000002        6.3473486399999999
Na        10.3499999999999996        4.2773486399999996        8.4173486400000002
Na         8.2799999999999994        2.2073486400000002       10.4873486400000004
Na        10.3499999999999996        4.2773486399999996       12.5573486400000007
Na        10.3499999999999996        8.4173486400000002        0.1373486400000000
Na         8.2799999999999994        6.3473486399999999        2.2073486400000002
Na        10.3499999999999996        8.4173486400000002        4.2773486399999996
Na         8.2799999999999994        6.3473486399999999        6.3473486399999999
Na        10.3499999999999996        8.4173486400000002        8.4173486400000002
Na         8.2799999999999994        6.3473486399999999       10.4873486400000004
Na        10.3499999999999996        8.4173486400000002       12.5573486400000007
Na         8.2799999999999994       10.4873486400000004        2.2073486400000002
Na        10.3499999999999996       12.5573486400000007        4.2773486399999996
Na         8.2799999999999994       10.4873486400000004        6.3473486399999999
Na        10.3499999999999996       12.5573486400000007        8.4173486400000002
Na         8.2799999999999994       10.4873486400000004       10.4873486400000004
Na        14.4900000000000002        0.1373486400000000        4.2773486399999996
Na        14.4900000000000002        0.1373486400000000        8.4173486400000002
Na        14.4900000000000002        4.2773486399999996        0.1373486400000000
Na        12.4199999999999999        2.2073486400000002        2.2073486400000002
Na        14.4900000000000002        4.2773486399999996        4.2773486399999996
Na        12.4199999999999999        2.2073486400000002        6.3473486399999999
Na        14.4900000000000002        4.2773486399999996        8.4173486400000002
Na        12.4199999999999999        2.2073486400000002       10.4873486400000004
Na        14.4900000000000002        4.2773486399999996       12.5573486400000007
Na        14.4900000000000002        8.4173486400000002        0.1373486400000000
Na        12.4199999999999999        6.3473486399999999        2.2073486400000002
Na        14.4900000000000002        8.4173486400000002        4.2773486399999996
Na        12.4199999999999999        6.3473486399999999        6.3473486399999999
Na        14.4900000000000002        8.4173486400000002        8.4173486400000002
Na        12.4199999999999999        6.3473486399999999       10.4873486400000004
Na        14.4900000000000002        8.4173486400000002       12.5573486400000007
Na        12.4199999999999999       10.4873486400000004        2.2073486400000002
Na        14.4900000000000002       12.5573486400000007        4.2773486399999996
Na        12.4199999999999999       10.4873486400000004        6.3473486399999999
Na        14.4900000000000002       12.5573486400000007        8.4173486400000002
Na        12.4199999999999999       10.4873486400000004       10.4873486400000004
Na        18.6299999999999990        0.1373486400000000        4.2773486399999996
Na        18.6299999999999990        0.1373486400000000        8.4173486400000002
Na        18.6299999999999990        4.2773486399999996        0.1373486400000000
Na        16.5599999999999987        2.2073486400000002        2.2073486400000002
Na        18.6299999999999990        4.2773486399999996        4.2773486399999996
Na        16.5599999999999987        2.2073486400000002        6.3473486399999999
Na        18.6299999999999990        4.2773486399999996        8.4173486400000002
Na        16.5599999999999987        2.2073486400000002       10.4873486400000004
Na        18.6299999999999990        4.2773486399999996       12.5573486400000007
Na        18.6299999999999990        8.4173486400000002        0.1373486400000000
Na        16.5599999999999987        6.3473486399999999        2.2073486400000002
Na        18.6299999999999990        8.4173486400000002        4.2773486399999996
Na        16.5599999999999987        6.3473486399999999        6.3473486399999999
Na        18.6299999999999990        8.4173486400000002        8.4173486400000002
Na        16.5599999999999987        6.3473486399999999       10.4873486400000004
Na        18.6299999999999990        8.4173486400000002       12.5573486400000007
Na        16.5599999999999987       10.4873486400000004        2.2073486400000002
Na        18.6299999999999990       12.5573486400000007        4.2773486399999996
Na        16.5599999999999987       10.4873486400000004        6.3473486399999999
Na        18.6299999999999990       12.5573486400000007        8.4173486400000002
Na        16.5599999999999987       10.4873486400000004       10.4873486400000004
Na        22.7972028900000048        0.0000002200000000        4.4177555100000001
Na        22.7972028800000004       -0.0000000000000000        8.2769419000000006
Na        22.7972028900000048        4.4177555100000001        0.0000002200000000
Na        20.8070721100000000        2.0653641700000001        2.0653641700000001
Na        22.8006062000000007        4.2174604300000000        4.2174604300000000
Na        20.7506964100000033        2.2582784600000001        6.3473484300000003
Na        22.8006062299999996        4.2174607200000001        8.4772365599999997
Na        20.8070719100000012        2.0653640499999999       10.6293332300000003
Na        22.7972028800000004        4.4177553800000000       12.6946972799999998
Na        22.7972028800000004        8.2769419000000006       -0.0000000000000000
Na        20.7506964100000033        6.3473484300000003        2.2582784600000001
Na        22.8006062299999996        8.4772365599999997        4.2174607200000001
Na        20.7841171699999983        6.3473486399999999        6.3473486399999999
Na        22.8006062000000007        8.4772368500000006        8.4772368500000006
Na        20.7506964100000033        6.3473488500000004       10.4364188200000001
Na        22.7972028900000048        8.2769417700000005       12.6946970599999993
Na        20.8070719100000012       10.6293332300000003        2.0653640499999999
Na        22.7972028800000004       12.6946972799999998        4.4177553800000000
Na        20.7506964100000033       10.4364188200000001        6.3473488500000004
Na        22.7972028900000048       12.6946970599999993        8.2769417700000005
Na        20.8070721100000000       10.6293331099999993       10.6293331099999993
Na        26.8827959900000018        0.0000003300000000        4.4177555300000000
Na        26.8827959999999990        0.0000001100000000        8.2769418699999999
Na        26.8827959900000018        4.4177555300000000        0.0000003300000000
Na        24.8399996200000004        2.0389774699999998        2.0389774699999998
Na        26.8793924000000004        4.2174607699999997        4.2174607699999997
Na        24.8399994399999997        2.2592390000000000        6.3473485500000004
Na        26.8793923700000015        4.2174610599999998        8.4772362200000018
Na        24.8399996200000004        2.0389773400000002       10.6557199399999991
Na        26.8827959999999990        4.4177554099999998       12.6946971699999995
Na        26.8827959999999990        8.2769418699999999        0.0000001100000000
Na        24.8399994399999997        6.3473485500000004        2.2592390000000000
Na        26.8793923700000015        8.4772362200000018        4.2174610599999998
Na        24.8399992300000001        6.3473486399999999        6.3473486399999999
Na        26.8793924000000004        8.4772365099999991        8.4772365099999991
Na        24.8399994399999997        6.3473487300000002       10.4354582800000006
Na        26.8827959900000018        8.2769417500000007       12.6946969500000009
Na        24.8399996200000004       10.6557199399999991        2.0389773400000002
Na        26.8827959999999990       12.6946971699999995        4.4177554099999998
Na        24.8399994399999997       10.4354582800000006        6.3473487300000002
Na        26.8827959900000018       12.6946969500000009        8.2769417500000007
Na        24.8399996200000004       10.6557198100000008       10.6557198100000008
Na        31.0500000000000007        0.1373486400000000        4.2773486399999996
Na        31.0500000000000007        0.1373486400000000        8.4173486400000002
Na        31.0500000000000007        4.2773486399999996        0.1373486400000000
Na        28.8729275399999956        2.0653646700000001        2.0653646700000001
Na        31.0500000000000007        4.2773486399999996        4.2773486399999996
Na        28.9293030299999998        2.2582780100000002        6.3473484300000003
Na        31.0500000000000007        4.2773486399999996        8.4173486400000002
Na        28.8729277400000015        2.0653645500000000       10.6293327299999998
Na        31.0500000000000007        4.2773486399999996       12.5573486400000007
Na        31.0500000000000007        8.4173486400000002        0.1373486400000000
Na        28.9293030299999998        6.3473484300000003        2.2582780100000002
Na        31.0500000000000007        8.4173486400000002        4.2773486399999996
Na        28.8958821099999952        6.3473486399999999        6.3473486399999999
Na        31.0500000000000007        8.4173486400000002        8.4173486400000002
Na        28.9293030299999998        6.3473488500000004       10.4364192700000000
Na        31.0500000000000007        8.4173486400000002       12.5573486400000007
Na        28.8729277400000015       10.6293327299999998        2.0653645500000000
Na        31.0500000000000007       12.5573486400000007        4.2773486399999996
Na        28.9293030299999998       10.4364192700000000        6.3473488500000004
Na        31.0500000000000007       12.5573486400000007        8.4173486400000002
Na        28.8729275399999956       10.6293326099999987       10.6293326099999987
Na        35.1899999999999977        0.1373486400000000        4.2773486399999996
Na        35.1899999999999977        0.1373486400000000        8.4173486400000002
Na        35.1899999999999977        4.2773486399999996        0.1373486400000000
Na        33.1199999999999974        2.2073486400000002        2.2073486400000002
Na        35.1899999999999977        4.2773486399999996        4.2773486399999996
Na        33.1199999999999974        2.2073486400000002        6.3473486399999999
Na        35.1899999999999977        4.2773486399999996        8.4173486400000002
Na        33.1199999999999974        2.2073486400000002       10.4873486400000004
Na        35.1899999999999977        4.2773486399999996       12.5573486400000007
Na        35.1899999999999977        8.4173486400000002        0.1373486400000000
Na        33.1199999999999974        6.3473486399999999        2.2073486400000002
Na        35.1899999999999977        8.4173486400000002        4.2773486399999996
Na        33.1199999999999974        6.3473486399999999        6.3473486399999999
Na        35.1899999999999977        8.4173486400000002        8.4173486400000002
Na        33.1199999999999974        6.3473486399999999       10.4873486400000004
Na        35.1899999999999977        8.4173486400000002       12.5573486400000007
Na        33.1199999999999974       10.4873486400000004        2.2073486400000002
Na        35.1899999999999977       12.5573486400000007        4.2773486399999996
Na        33.1199999999999974       10.4873486400000004        6.3473486399999999
Na        35.1899999999999977       12.5573486400000007        8.4173486400000002
Na        33.1199999999999974       10.4873486400000004       10.4873486400000004
Na        39.3299999999999983        0.1373486400000000        4.2773486399999996
Na        39.3299999999999983        0.1373486400000000        8.4173486400000002
Na        39.3299999999999983        4.2773486399999996        0.1373486400000000
Na        37.2599999999999980        2.2073486400000002        2.2073486400000002
Na        39.3299999999999983        4.2773486399999996        4.2773486399999996
Na        37.2599999999999980        2.2073486400000002        6.3473486399999999
Na        39.3299999999999983        4.2773486399999996        8.4173486400000002
Na        37.2599999999999980        2.2073486400000002       10.4873486400000004
Na        39.3299999999999983        4.2773486399999996       12.5573486400000007
Na        39.3299999999999983        8.4173486400000002        0.1373486400000000
Na        37.2599999999999980        6.3473486399999999        2.2073486400000002
Na        39.3299999999999983        8.4173486400000002        4.2773486399999996
Na        37.2599999999999980        6.3473486399999999        6.3473486399999999
Na        39.3299999999999983        8.4173486400000002        8.4173486400000002
Na        37.2599999999999980        6.3473486399999999       10.4873486400000004
Na        39.3299999999999983        8.4173486400000002       12.5573486400000007
Na        37.2599999999999980       10.4873486400000004        2.2073486400000002
Na        39.3299999999999983       12.5573486400000007        4.2773486399999996
Na        37.2599999999999980       10.4873486400000004        6.3473486399999999
Na        39.3299999999999983       12.5573486400000007        8.4173486400000002
Na        37.2599999999999980       10.4873486400000004       10.4873486400000004
Na        43.4699999999999989        0.1373486400000000        4.2773486399999996
Na        43.4699999999999989        0.1373486400000000        8.4173486400000002
Na        43.4699999999999989        4.2773486399999996        0.1373486400000000
Na        41.3999999999999986        2.2073486400000002        2.2073486400000002
Na        43.4699999999999989        4.2773486399999996        4.2773486399999996
Na        41.3999999999999986        2.2073486400000002        6.3473486399999999
Na        43.4699999999999989        4.2773486399999996        8.4173486400000002
Na        41.3999999999999986        2.2073486400000002       10.4873486400000004
Na        43.4699999999999989        4.2773486399999996       12.5573486400000007
Na        43.4699999999999989        8.4173486400000002        0.1373486400000000
Na        41.3999999999999986        6.3473486399999999        2.2073486400000002
Na        43.4699999999999989        8.4173486400000002        4.2773486399999996
Na        41.3999999999999986        6.3473486399999999        6.3473486399999999
Na        43.4699999999999989        8.4173486400000002        8.4173486400000002
Na        41.3999999999999986        6.3473486399999999       10.4873486400000004
Na        43.4699999999999989        8.4173486400000002       12.5573486400000007
Na        41.3999999999999986       10.4873486400000004        2.2073486400000002
Na        43.4699999999999989       12.5573486400000007        4.2773486399999996
Na        41.3999999999999986       10.4873486400000004        6.3473486399999999
Na        43.4699999999999989       12.5573486400000007        8.4173486400000002
Na        41.3999999999999986       10.4873486400000004       10.4873486400000004
Na        47.6099999999999994        0.1373486400000000        4.2773486399999996
Na        47.6099999999999994        0.1373486400000000        8.4173486400000002
Na        47.6099999999999994        4.2773486399999996        0.1373486400000000
Na        45.5399999999999991        2.2073486400000002        2.2073486400000002
Na        47.6099999999999994        4.2773486399999996        4.2773486399999996
Na        45.5399999999999991        2.2073486400000002        6.3473486399999999
Na        47.6099999999999994        4.2773486399999996        8.4173486400000002
Na        45.5399999999999991        2.2073486400000002       10.4873486400000004
Na        47.6099999999999994        4.2773486399999996       12.5573486400000007
Na        47.6099999999999994        8.4173486400000002        0.1373486400000000
Na        45.5399999999999991        6.3473486399999999        2.2073486400000002
Na        47.6099999999999994        8.4173486400000002        4.2773486399999996
Na        45.5399999999999991        6.3473486399999999        6.3473486399999999
Na        47.6099999999999994        8.4173486400000002        8.4173486400000002
Na        45.5399999999999991        6.3473486399999999       10.4873486400000004
Na        47.6099999999999994        8.4173486400000002       12.5573486400000007
Na        45.5399999999999991       10.4873486400000004        2.2073486400000002
Na        47.6099999999999994       12.5573486400000007        4.2773486399999996
Na        45.5399999999999991       10.4873486400000004        6.3473486399999999
Na        47.6099999999999994       12.5573486400000007        8.4173486400000002
Na        45.5399999999999991       10.4873486400000004       10.4873486400000004
Na        49.6799999999999997        2.2073486400000002        2.2073486400000002
Na        49.6799999999999997        2.2073486400000002        6.3473486399999999
Na        49.6799999999999997        2.2073486400000002       10.4873486400000004
Na        49.6799999999999997        6.3473486399999999        2.2073486400000002
Na        49.6799999999999997        6.3473486399999999        6.3473486399999999
Na        49.6799999999999997        6.3473486399999999       10.4873486400000004
Na        49.6799999999999997       10.4873486400000004        2.2073486400000002
Na        49.6799999999999997       10.4873486400000004        6.3473486399999999
Na        49.6799999999999997       10.4873486400000004       10.4873486400000004
