68
Generated with GEOM code
O           18.52847941           0.75101471          -0.33119706
O           16.35797941           1.39521471          -1.03899706
O           17.56757941          -1.62078529           0.89780294
O           15.01297941           3.55541471           0.31980294
O           21.26797941           1.38301471          -1.50529706
O           21.90167941          -3.63768529           0.69760294
O           16.25937941          -3.40278529          -1.53309706
O           15.77487941          -5.31728529           0.28880294
O           23.74077941           1.74661471          -1.16309706
O           24.34857941          -3.10988529           0.98000294
O           26.23757941           2.26651471          -0.90859706
N           17.30567941           4.30891471           1.85060294
C           18.99347941          -0.19708529          -1.28959706
C           17.96617941          -2.29228529          -0.29079706
C           17.96107941          -1.31568529          -1.46899706
C           19.34467941          -2.93758529          -0.11499706
C           20.34017941          -0.69858529          -0.83119706
C           20.49787941          -1.96948529          -0.25229706
C           17.73597941           1.76221471          -0.94699706
C           17.90617941           3.08111471          -0.19049706
C           17.22217941           3.01311471           1.17980294
C           15.76277941           2.56331471           1.02300294
C           15.70757941           1.24901471           0.23050294
C           21.45787941           0.14451471          -0.95669706
C           16.93457941          -3.36298529          -0.50559706
C           21.77337941          -2.38368529           0.16670294
C           22.72277941          -0.27378529          -0.52839706
C           22.88087941          -1.53878529           0.03200294
C           14.27717941           0.79691471          -0.04409706
C           16.77967941          -4.37788529           0.60700294
C           23.88117941           0.63141471          -0.67639706
C           24.21027941          -1.99848529           0.48410294
C           25.21207941           0.17131471          -0.23029706
C           25.37107941          -1.09798529           0.32930294
C           26.31957941           1.01611471          -0.37099706
C           26.63757941          -1.52308529           0.74810294
C           27.57997941           0.58861471           0.04730294
C           27.73867941          -0.67818529           0.60560294
C           25.97787941           3.34171471          -0.00919706
H           19.12927941           0.25721471          -2.28099706
H           18.19957941          -1.86558529          -2.39059706
H           16.96037941          -0.89428529          -1.60419706
H           19.39487941          -3.39308529           0.88200294
H           19.48037941          -3.72658529          -0.86689706
H           18.07897941           1.95401471          -1.97069706
H           18.97197941           3.30701471          -0.06449706
H           17.45957941           3.88981471          -0.78369706
H           17.74857941           2.27981471           1.80340294
H           15.30337941           2.43471471           2.01070294
H           16.20977941           0.46311471           0.80160294
H           17.82567941          -2.15288529           1.66860294
H           14.28417941          -0.18648529          -0.52799706
H           13.76337941           1.47241471          -0.73619706
H           13.69767941           0.72141471           0.88080294
H           18.27797941           4.61221471           1.89220294
H           16.81337941           5.01311471           1.30180294
H           17.71137941          -4.93118529           0.74070294
H           16.50267941          -3.88748529           1.54310294
H           14.06957941           3.36391471           0.45400294
H           20.36157941           1.68861471          -1.34829706
H           21.22677941          -4.23538529           0.34000294
H           26.78747941          -2.50598529           1.18650294
H           14.92827941          -4.83998529           0.25400294
H           28.44557941           1.23731471          -0.05949706
H           28.72107941          -1.00868529           0.93030294
H           26.88347941           3.57671471           0.55870294
H           25.69627941           4.22011471          -0.59639706
H           25.16157941           3.10401471           0.68080294
