68
Generated with GEOM code
O            1.49492059           0.33119706           0.75101471
O            3.66542059           1.03899706           1.39521471
O            2.45582059          -0.89780294          -1.62078529
O            5.01042059          -0.31980294           3.55541471
O           -1.24457941           1.50529706           1.38301471
O           -1.87827941          -0.69760294          -3.63768529
O            3.76402059           1.53309706          -3.40278529
O            4.24852059          -0.28880294          -5.31728529
O           -3.71737941           1.16309706           1.74661471
O           -4.32517941          -0.98000294          -3.10988529
O           -6.21417941           0.90859706           2.26651471
N            2.71772059          -1.85060294           4.30891471
C            1.02992059           1.28959706          -0.19708529
C            2.05722059           0.29079706          -2.29228529
C            2.06232059           1.46899706          -1.31568529
C            0.67872059           0.11499706          -2.93758529
C           -0.31677941           0.83119706          -0.69858529
C           -0.47447941           0.25229706          -1.96948529
C            2.28742059           0.94699706           1.76221471
C            2.11722059           0.19049706           3.08111471
C            2.80122059          -1.17980294           3.01311471
C            4.26062059          -1.02300294           2.56331471
C            4.31582059          -0.23050294           1.24901471
C           -1.43447941           0.95669706           0.14451471
C            3.08882059           0.50559706          -3.36298529
C           -1.74997941          -0.16670294          -2.38368529
C           -2.69937941           0.52839706          -0.27378529
C           -2.85747941          -0.03200294          -1.53878529
C            5.74622059           0.04409706           0.79691471
C            3.24372059          -0.60700294          -4.37788529
C           -3.85777941           0.67639706           0.63141471
C           -4.18687941          -0.48410294          -1.99848529
C           -5.18867941           0.23029706           0.17131471
C           -5.34767941          -0.32930294          -1.09798529
C           -6.29617941           0.37099706           1.01611471
C           -6.61417941          -0.74810294          -1.52308529
C           -7.55657941          -0.04730294           0.58861471
C           -7.71527941          -0.60560294          -0.67818529
C           -5.95447941           0.00919706           3.34171471
H            0.89412059           2.28099706           0.25721471
H            1.82382059           2.39059706          -1.86558529
H            3.06302059           1.60419706          -0.89428529
H            0.62852059          -0.88200294          -3.39308529
H            0.54302059           0.86689706          -3.72658529
H            1.94442059           1.97069706           1.95401471
H            1.05142059           0.06449706           3.30701471
H            2.56382059           0.78369706           3.88981471
H            2.27482059          -1.80340294           2.27981471
H            4.72002059          -2.01070294           2.43471471
H            3.81362059          -0.80160294           0.46311471
H            2.19772059          -1.66860294          -2.15288529
H            5.73922059           0.52799706          -0.18648529
H            6.26002059           0.73619706           1.47241471
H            6.32572059          -0.88080294           0.72141471
H            1.74542059          -1.89220294           4.61221471
H            3.21002059          -1.30180294           5.01311471
H            2.31202059          -0.74070294          -4.93118529
H            3.52072059          -1.54310294          -3.88748529
H            5.95382059          -0.45400294           3.36391471
H           -0.33817941           1.34829706           1.68861471
H           -1.20337941          -0.34000294          -4.23538529
H           -6.76407941          -1.18650294          -2.50598529
H            5.09512059          -0.25400294          -4.83998529
H           -8.42217941           0.05949706           1.23731471
H           -8.69767941          -0.93030294          -1.00868529
H           -6.86007941          -0.55870294           3.57671471
H           -5.67287941           0.59639706           4.22011471
H           -5.13817941          -0.68080294           3.10401471
