68
Generated with GEOM code
O            1.49492059         -14.44898529          -0.33119706
O            3.66542059         -13.80478529          -1.03899706
O            2.45582059         -16.82078529           0.89780294
O            5.01042059         -11.64458529           0.31980294
O           -1.24457941         -13.81698529          -1.50529706
O           -1.87827941         -18.83768529           0.69760294
O            3.76402059         -18.60278529          -1.53309706
O            4.24852059         -20.51728529           0.28880294
O           -3.71737941         -13.45338529          -1.16309706
O           -4.32517941         -18.30988529           0.98000294
O           -6.21417941         -12.93348529          -0.90859706
N            2.71772059         -10.89108529           1.85060294
C            1.02992059         -15.39708529          -1.28959706
C            2.05722059         -17.49228529          -0.29079706
C            2.06232059         -16.51568529          -1.46899706
C            0.67872059         -18.13758529          -0.11499706
C           -0.31677941         -15.89858529          -0.83119706
C           -0.47447941         -17.16948529          -0.25229706
C            2.28742059         -13.43778529          -0.94699706
C            2.11722059         -12.11888529          -0.19049706
C            2.80122059         -12.18688529           1.17980294
C            4.26062059         -12.63668529           1.02300294
C            4.31582059         -13.95098529           0.23050294
C           -1.43447941         -15.05548529          -0.95669706
C            3.08882059         -18.56298529          -0.50559706
C           -1.74997941         -17.58368529           0.16670294
C           -2.69937941         -15.47378529          -0.52839706
C           -2.85747941         -16.73878529           0.03200294
C            5.74622059         -14.40308529          -0.04409706
C            3.24372059         -19.57788529           0.60700294
C           -3.85777941         -14.56858529          -0.67639706
C           -4.18687941         -17.19848529           0.48410294
C           -5.18867941         -15.02868529          -0.23029706
C           -5.34767941         -16.29798529           0.32930294
C           -6.29617941         -14.18388529          -0.37099706
C           -6.61417941         -16.72308529           0.74810294
C           -7.55657941         -14.61138529           0.04730294
C           -7.71527941         -15.87818529           0.60560294
C           -5.95447941         -11.85828529          -0.00919706
H            0.89412059         -14.94278529          -2.28099706
H            1.82382059         -17.06558529          -2.39059706
H            3.06302059         -16.09428529          -1.60419706
H            0.62852059         -18.59308529           0.88200294
H            0.54302059         -18.92658529          -0.86689706
H            1.94442059         -13.24598529          -1.97069706
H            1.05142059         -11.89298529          -0.06449706
H            2.56382059         -11.31018529          -0.78369706
H            2.27482059         -12.92018529           1.80340294
H            4.72002059         -12.76528529           2.01070294
H            3.81362059         -14.73688529           0.80160294
H            2.19772059         -17.35288529           1.66860294
H            5.73922059         -15.38648529          -0.52799706
H            6.26002059         -13.72758529          -0.73619706
H            6.32572059         -14.47858529           0.88080294
H            1.74542059         -10.58778529           1.89220294
H            3.21002059         -10.18688529           1.30180294
H            2.31202059         -20.13118529           0.74070294
H            3.52072059         -19.08748529           1.54310294
H            5.95382059         -11.83608529           0.45400294
H           -0.33817941         -13.51138529          -1.34829706
H           -1.20337941         -19.43538529           0.34000294
H           -6.76407941         -17.70598529           1.18650294
H            5.09512059         -20.03998529           0.25400294
H           -8.42217941         -13.96268529          -0.05949706
H           -8.69767941         -16.20868529           0.93030294
H           -6.86007941         -11.62328529           0.55870294
H           -5.67287941         -10.97988529          -0.59639706
H           -5.13817941         -12.09598529           0.68080294
